.model D1N4148  D(Is=5.84n N=1.94 Rs=.7017 Ikf=44.17m Xti=3 Eg=1.11 Cjo=.95p
+               M=.55 Vj=.75 Fc=.5 Isr=11.07n Nr=2.088 Bv=100 Ibv=100u Tt=11.07n)

.MODEL D1ss400t1g d
+IS=4.6141e-09 RS=1.15927 N=1.87283 EG=1.17241
+XTI=0.5 BV=200 IBV=0.0001 CJO=6.13805e-13
+VJ=0.4 M=0.0508664 FC=0.5 TT=2.59685e-09
+KF=0 AF=1

.MODEL BAS716 D
+ IS = 3.519E-15
+ N = 1.093
+ BV = 110
+ IBV = 3E-9
+ RS = 0.7423
+ CJO = 1.817E-12
+ VJ = 0.6508
+ M = 0.3689
+ FC = 0.5
+ TT = 8.656E-7
*##
*

