********************************************************************************************************
*
* Nexperia BUK6Y33-60P
* Polarity P - Channel
* Ratings 60V/26.0mOhm/20A
* Revision N#: 1.0
* Created on 2019-11-27 10:32:32
* Please visit www.nexperia.com for latest revision release
*
********************************************************************************************************
*
* Model generated by Nexperia
* Copyright(c) 2018
* All rights reserved
*
* Contains proprietary information which is the property of Nexperia.
*
********************************************************************************************************

.SUBCKT BUK6Y33-60P D G S

* Package impedance
LD D 5 5.000p
RLD2 D 5 12.57m
RLD1 5 4 1.000u
LG G 1 820.0p
RLG G 1 2.061
LS S 8 900.0p
RLS2 S 8 2.262
RLS1 8 7 350.0u

* Drain,gate and source resistances
RD 3 4 24.20m TC= 2.657m,1.001n
RG 1 2 6.070
RS 6 7 1.000u

* Body Diode
RBD 9 4 7.521m TC= 4.000m,23.00u
DBD 9 7 D_DBD
RDS 7 4 61.48G TC= -5.000m

* Internal MOS
M1 3 2 6 6 MINT

* Gate leakage and gate capacitance
RGS 2 6 218.2G
CGS 2 6 2.472n

* CGD
C11 11 12 1E-12
V11 11 0 0Vdc
G11 2 3 VALUE {V(13,0)*I(V11)}
E11 12 0 2 3 1
E12 13 0 TABLE {V(12)}
+ (-10.0,3821.0)
+ (-3.09,3821.0)
+ (0.01,855.6)
+ (0.1,808.1)
+ (0.2,761.3)
+ (0.5,632.0)
+ (1.0,486.0)
+ (2.0,367.4)
+ (3.0,312.2)
+ (4.0,278.0)
+ (5.0,253.9)
+ (6.0,235.5)
+ (8.0,208.8)
+ (10.0,189.9)
+ (12.0,175.7)
+ (24.0,130.2)

.MODEL MINT PMOS Vto= -2.357 Kp= 91.38 Nfs= 316.5G Eta= 0.000
+ Level= 3 Gamma= 0.000 Phi= 600.0m Is= 1.000E-24 UO= 600.0
+ Js= 0.000 Pb= 800.0m Cj= 0.000 Cjsw= 0.000 Cgso= 0.000 Cgdo= 0.000 Cgbo= 0.000
+ Tox= 100.0n Xj= 0.000
+ Vmax= 1.765K

.MODEL D_DBD D Bv= 76.48 Ibv= 250.0u Rs= 1.000u Is= 1.503p
+ N= 1.000 M= 493.8m VJ= 474.9m Fc= 500.0m Cjo= 1.562n Tt= 18.50n

.ENDS BUK6Y33-60P

********************************************************************************************************
* - Limited warranty and liability -
*
* Information in this document is believed to be accurate and reliable. However,Nexperia does not give
* any representations or warranties,expressed or implied,as to the accuracy or completeness of such
* information and shall have no liability for the consequences of use of such information.
* Nexperia takes no responsibility for the content in this document if provided by an information source
* outside of Nexperia. In no event shall Nexperia be liable for any indirect,incidental,punitive,
* special or consequential damages (including - without limitation - lost profits,lost savings,
* business interruption,costs related to the removal or replacement of any products or rework charges)
* whether or not such damages are based on tort (including negligence),warranty,breach of contract or
* any other legal theory. Notwithstanding any damages that customer might incur for any reason whatsoever,
* Nexperia's aggregate and cumulative liability towards customer for the products described herein shall
* be limited in accordance with the Terms and conditions of commercial sale of Nexperia.
*
********************************************************************************************************