.MODEL DI_MMDT3906  PNP (IS=7.21e-016 NF=1.00 BF=410 VAF=114
+ IKF=48.6m ISE=1.01p NE=2.00 BR=4.00 NR=1.00
+ VAR=20.0 IKR=0.120 RE=1.21 RB=4.83 RC=0.483
+ XTB=1.5 CJE=10.9p VJE=1.10 MJE=0.500 CJC=7.57p VJC=0.300 MJC=0.300 
+ TF=558p TR=84.1n EG=1.12 )